<configuration>
    <input>
        <net-file value="../net/grid.net.xml"/>
        <route-files value="../routes/routes.rou.xml"/>
    </input>
    <time>
        <begin value="0"/>
        <end value="100"/>
    </time>
</configuration>