<?xml version="1.0" encoding="UTF-8"?>
<additional>
    <vType id="car" accel="2.0" decel="4.5" sigma="0.5" length="5.0" maxSpeed="20.0"/>
    <vType id="bus" accel="1.0" decel="3.0" sigma="0.2" length="12.0" maxSpeed="15.0"/>
</additional>