<?xml version="1.0" encoding="UTF-8"?>

<!-- generated on 2025-08-27 16:20:41.613357 by randomTrips.py v1_23_1+0000-676720d13f6
<configuration>
    <net-file value="c:\Users\alfon\PycharmProjects\my_grid_simulation\src\optimization\temp_aco_files\temp_trips_temp.net.xml"/>
    <route-file value="c:\Users\alfon\PycharmProjects\my_grid_simulation\src\optimization\temp_aco_files\temp_trips.trips.xml"/>
    <trip-attributes value="departLane=&quot;random&quot; departSpeed=&quot;random&quot;"/>
    <end value="750.0"/>
    <period value="15.0"/>
</configuration>
-->

<routes xmlns:xsi="http://www.w3.org/2001/XMLSchema-instance" xsi:noNamespaceSchemaLocation="http://sumo.dlr.de/xsd/routes_file.xsd">
    <trip id="0" depart="0.00" from="C1D1" to="A0B0" departLane="random" departSpeed="random"/>
    <trip id="1" depart="15.00" from="B1A1" to="B0A0" departLane="random" departSpeed="random"/>
    <trip id="2" depart="30.00" from="C3B3" to="C2C1" departLane="random" departSpeed="random"/>
    <trip id="3" depart="45.00" from="D1D2" to="A1B1" departLane="random" departSpeed="random"/>
    <trip id="4" depart="60.00" from="B2C2" to="A0B0" departLane="random" departSpeed="random"/>
    <trip id="5" depart="75.00" from="B0A0" to="C0B0" departLane="random" departSpeed="random"/>
    <trip id="6" depart="90.00" from="A0B0" to="A3B3" departLane="random" departSpeed="random"/>
    <trip id="7" depart="105.00" from="C2B2" to="C0D0" departLane="random" departSpeed="random"/>
    <trip id="8" depart="120.00" from="B0A0" to="C1C0" departLane="random" departSpeed="random"/>
    <trip id="9" depart="135.00" from="D0C0" to="A0A1" departLane="random" departSpeed="random"/>
    <trip id="10" depart="150.00" from="D0C0" to="C2C3" departLane="random" departSpeed="random"/>
    <trip id="11" depart="165.00" from="B1C1" to="A2B2" departLane="random" departSpeed="random"/>
    <trip id="12" depart="180.00" from="D2D3" to="B1C1" departLane="random" departSpeed="random"/>
    <trip id="13" depart="195.00" from="A1B1" to="A1B1" departLane="random" departSpeed="random"/>
    <trip id="14" depart="210.00" from="D1C1" to="C1C0" departLane="random" departSpeed="random"/>
    <trip id="15" depart="225.00" from="D0C0" to="C3B3" departLane="random" departSpeed="random"/>
    <trip id="16" depart="240.00" from="C0C1" to="D3C3" departLane="random" departSpeed="random"/>
    <trip id="17" depart="255.00" from="B2B1" to="C0D0" departLane="random" departSpeed="random"/>
    <trip id="18" depart="270.00" from="D0D1" to="C1C2" departLane="random" departSpeed="random"/>
    <trip id="19" depart="285.00" from="D1D0" to="C1B1" departLane="random" departSpeed="random"/>
    <trip id="20" depart="300.00" from="C2C3" to="A1A0" departLane="random" departSpeed="random"/>
    <trip id="21" depart="315.00" from="B0A0" to="B1A1" departLane="random" departSpeed="random"/>
    <trip id="22" depart="330.00" from="A1A2" to="B0B1" departLane="random" departSpeed="random"/>
    <trip id="23" depart="345.00" from="A1B1" to="B1A1" departLane="random" departSpeed="random"/>
    <trip id="24" depart="360.00" from="C1D1" to="B2A2" departLane="random" departSpeed="random"/>
    <trip id="25" depart="375.00" from="B2A2" to="B0A0" departLane="random" departSpeed="random"/>
    <trip id="26" depart="390.00" from="B0C0" to="D2D1" departLane="random" departSpeed="random"/>
    <trip id="27" depart="405.00" from="C2B2" to="C1C2" departLane="random" departSpeed="random"/>
    <trip id="28" depart="420.00" from="A3A2" to="C2D2" departLane="random" departSpeed="random"/>
    <trip id="29" depart="435.00" from="A2B2" to="B2B1" departLane="random" departSpeed="random"/>
    <trip id="30" depart="450.00" from="D3D2" to="C1D1" departLane="random" departSpeed="random"/>
    <trip id="31" depart="465.00" from="C0D0" to="C2C1" departLane="random" departSpeed="random"/>
    <trip id="32" depart="480.00" from="D1C1" to="C3D3" departLane="random" departSpeed="random"/>
    <trip id="33" depart="495.00" from="B0A0" to="A0B0" departLane="random" departSpeed="random"/>
    <trip id="34" depart="510.00" from="B1B2" to="B0C0" departLane="random" departSpeed="random"/>
    <trip id="35" depart="525.00" from="B0A0" to="D2D3" departLane="random" departSpeed="random"/>
    <trip id="36" depart="540.00" from="D1D2" to="B1B2" departLane="random" departSpeed="random"/>
    <trip id="37" depart="555.00" from="C2B2" to="B2B1" departLane="random" departSpeed="random"/>
    <trip id="38" depart="570.00" from="D2C2" to="B3B2" departLane="random" departSpeed="random"/>
    <trip id="39" depart="585.00" from="B0C0" to="B0B1" departLane="random" departSpeed="random"/>
    <trip id="40" depart="600.00" from="C0D0" to="B0C0" departLane="random" departSpeed="random"/>
    <trip id="41" depart="615.00" from="C1C0" to="D2C2" departLane="random" departSpeed="random"/>
    <trip id="42" depart="630.00" from="B2B3" to="B0A0" departLane="random" departSpeed="random"/>
    <trip id="43" depart="645.00" from="D3D2" to="C0B0" departLane="random" departSpeed="random"/>
    <trip id="44" depart="660.00" from="A1B1" to="A1A0" departLane="random" departSpeed="random"/>
    <trip id="45" depart="675.00" from="A2A1" to="C1D1" departLane="random" departSpeed="random"/>
    <trip id="46" depart="690.00" from="D0C0" to="B2C2" departLane="random" departSpeed="random"/>
    <trip id="47" depart="705.00" from="A1A2" to="B2B1" departLane="random" departSpeed="random"/>
    <trip id="48" depart="720.00" from="D3D2" to="C0C1" departLane="random" departSpeed="random"/>
    <trip id="49" depart="735.00" from="D3C3" to="D1D0" departLane="random" departSpeed="random"/>
</routes>
