<?xml version="1.0" encoding="UTF-8"?>
<additional xmlns:xsi="http://www.w3.org/2001/XMLSchema-instance" xsi:noNamespaceSchemaLocation="http://sumo.dlr.de/xsd/additional_file.xsd">
    <vType id="car" accel="2.6" decel="4.5" sigma="0.5" length="5" minGap="2.5" maxSpeed="55.55" color="1,0,0"/>
    <vType id="truck" accel="1.8" decel="4.0" sigma="0.5" length="12" minGap="3.0" maxSpeed="44.44" color="0,1,0"/>
</additional>