<?xml version="1.0" encoding="UTF-8"?>
<configuration>
    <input>
        <net-file value="grid_4x4.net.xml"/>
        <route-files value="grid_4x4.rou.xml"/>
        <additional-files value="vtype.add.xml"/>
    </input>
    <output>
        <tripinfo-output value="tripinfo.xml"/>
    </output>
    <time>
        <end value="2000"/>
    </time>
    <processing>
        <time-to-teleport value="300"/>
    </processing>
</configuration>