<?xml version='1.0' encoding='UTF-8'?>
<routes xmlns:xsi="http://www.w3.org/2001/XMLSchema-instance" xsi:noNamespaceSchemaLocation="http://sumo.dlr.de/xsd/routes_file.xsd">
    <vehicle id="trip_0" depart="1.00">
        <route edges="D0C0 C0C1 C1D1 D1D2 D2C2" />
    </vehicle>
    <vehicle id="trip_1" depart="1.00">
        <route edges="D1D0 D0C0 C0C1 C1C2 C2C1" />
    </vehicle>
    <vehicle id="trip_2" depart="1.00">
        <route edges="B3C3 C3D3 D3D2 D2D1 D1C1" />
    </vehicle>
    <vehicle id="trip_3" depart="1.00">
        <route edges="A1A2 A2B2" />
    </vehicle>
    <vehicle id="trip_4" depart="64.00">
        <route edges="B3C3 C3C2 C2C1 C1C0 C0B0 B0B1" />
    </vehicle>
    <vehicle id="trip_5" depart="160.00">
        <route edges="A2A3 A3B3 B3B2 B2C2" />
    </vehicle>
    <vehicle id="trip_6" depart="256.00">
        <route edges="A2A1 A1B1 B1B2 B2B3 B3C3 C3C2" />
    </vehicle>
    <vehicle id="trip_7" depart="352.00">
        <route edges="A2A3 A3B3 B3C3 C3C2 C2C1 C1B1" />
    </vehicle>
    <vehicle id="trip_8" depart="448.00">
        <route edges="A0B0 B0C0 C0C1 C1C2" />
    </vehicle>
    <vehicle id="trip_9" depart="544.00">
        <route edges="D1D0 D0C0 C0C1 C1D1 D1D2 D2C2" />
    </vehicle>
    <vehicle id="trip_10" depart="640.00">
        <route edges="A1A2 A2B2 B2C2 C2B2" />
    </vehicle>
    <vehicle id="trip_11" depart="736.00">
        <route edges="D2D1 D1C1 C1C2 C2C3 C3C2" />
    </vehicle>
    <vehicle id="trip_12" depart="832.00">
        <route edges="C0B0 B0B1 B1B2 B2C2" />
    </vehicle>
    <vehicle id="trip_13" depart="928.00">
        <route edges="A2A1 A1B1 B1C1 C1C2" />
    </vehicle>
    <vehicle id="trip_14" depart="1024.00">
        <route edges="A1A0 A0B0 B0B1 B1B2 B2C2 C2C1" />
    </vehicle>
    <vehicle id="trip_15" depart="1120.00">
        <route edges="D2D3 D3C3 C3C2 C2C1 C1B1 B1B2" />
    </vehicle>
    <vehicle id="trip_16" depart="1216.00">
        <route edges="A3B3 B3C3 C3D3 D3D2 D2C2" />
    </vehicle>
    <vehicle id="trip_17" depart="1312.00">
        <route edges="D2D3 D3C3 C3C2 C2C1 C1C0 C0C1" />
    </vehicle>
    <vehicle id="trip_18" depart="1408.00">
        <route edges="A2A3 A3B3 B3C3 C3C2 C2C1 C1B1" />
    </vehicle>
    <vehicle id="trip_19" depart="1504.00">
        <route edges="B0C0 C0C1 C1B1" />
    </vehicle>
</routes>