<edges>
    <edge id="AB" from="A" to="B" numLanes="1" speed="13.9"/>
</edges>
