<additional>
    <vType id="car" vClass="passenger" speedDev="0.1" sigma="0.5"/>
    <vType id="truck" vClass="truck" speedDev="0.05" sigma="0.5"/>
</additional>
