<vTypes>
    <vType id="car" vClass="passenger" maxSpeed="10"/>
</vTypes>